162 
Final configuration 
C    0.8451471344353136    15.564489038672274    -1.8901481842232348  
C    0.3472524962596072    17.805414934699474    -0.6750779125681121  
C    -1.515175985131039    11.430831953697393    -0.017975078606079525 
C    1.8694189530121634    16.489311799839044    2.231881739504713    
C    -0.1858685921955779   5.789513250885836     2.1139853029211224   
C    -0.3425495217022584   15.684317151034568    1.7554044473577382   
C    1.1946281856868568    15.79204542399253     0.02263207427956379  
C    -0.6843349954317195   -2.785213642564142    -2.1430908476077817  
C    0.14440147163102293   -19.70257460933836    -2.301348348849513   
C    -1.7604174409608815   9.595978572376719     -1.3804779479575737  
C    -0.8322596559311156   18.11273067414137     -1.0238493598670726  
C    1.7328428571358576    -18.554821787929985   1.649780646948652    
C    -1.2283735540514813   19.092223008812592    1.170508968933464    
C    -0.03654680684555728  -16.081369701755975   -1.4744380362309355  
C    1.040170727888428     -16.938628348703755   0.9919330954538774   
C    0.7714449975956751    -16.1242363589523     1.5828448081852307   
C    -1.1124317014165703   18.5133058219842      2.1793868666478597   
C    0.1179186057762466    -17.12111224044199    -1.2071858456364652  
C    1.4160007328171693    -16.965907423562452   -0.03553750958304694 
C    1.7248324169395919    19.350709057276216    -2.389835208445683   
C    -2.491035295568689    -19.34872624880781    -1.095919393661378   
C    -1.894140579701134    -16.667097965209475   -1.0184520645983965  
C    1.7276241384176179    -16.516060343575667   1.7551573596234353   
C    2.0528608446517986    18.68625967492763     -0.4192672172591007  
C    0.9877900028480606    19.580464265383714    0.9514666552018514   
C    0.7902541051966215    -14.046474534365426   -1.1293850957171465  
C    1.6358738466288236    -19.47180301593424    -2.3358760784036154  
C    2.2143209232269094    -16.876881200228716   -0.6734271942251231  
C    2.022757839549207     -19.57230858974       1.6771144764836294   
C    -0.039923956784078785  -18.04687476795742    -0.4605203543216859  
C    0.932848385406803     18.609128894952562    1.7568117066067181   
C    1.4266098075024336    -19.23387689367391    -0.4071079403900002  
C    -0.9641437452328816   -19.85576464321174    1.0786309643120062   
C    1.0304910556986444    19.80438976446551     -0.21222899373652254 
C    -0.43476327348875765  17.436571340537025    0.20547580849043415  
C    -0.9489175361762971   -17.385118608967556   1.6522958221017956   
C    2.1106486301112755    -17.839649193427352   -0.27384625121008865 
C    -1.2556356346030169   -17.35135597304628    0.01208815014050571  
C    -1.5106617585221442   -15.295577904791646   -0.9547551798320447  
C    -2.435330294442656    -18.46697341946096    1.16364293923598     
C    1.7396597933945417    9.747037426450254     -2.125761809689524   
C    0.9853046458289467    -19.36678881841123    0.5018421848097141   
C    -1.5914898438188156   17.48739936632123     1.9226902335818283   
C    -0.22513761606523647  14.853926986463566    -0.05677227074116667 
C    -1.289616123038476    17.790202011332998    -2.1212630639386285  
C    0.582806042449421     -17.695808150814297   -1.967920834030663   
C    -0.3751182971674197   -19.051087781831875   1.4973734266645118   
C    1.183004819490722     18.22468709337729     -2.149016613510563   
C    -1.6180226614619602   -14.870834005793125   1.6032561837345067   
C    -1.0147620196051894   -19.875753287375492   2.1994183334928237   
C    -0.8511738226180106   -17.984076542966967   0.8275023541214148   
C    0.7453226690802877    19.656618566834815    2.162566730372175    
C    -2.1695198709631622   -19.144432321377337   2.320753518713282    
C    2.1746852173050852    16.235030856073248    1.2980807310040323   
C    0.2721264215499669    17.02211311224697     2.162996258807766    
C    -0.9222538715098949   -17.971873677526936   2.498869785425756    
C    -0.6369222337538165   -19.725805077756043   -0.5636638151145941  
C    2.3991849569087713    -19.84738675008268    0.7849338169553974   
C    -1.7048537195246487   16.549301515485162    1.4931642596540036   
C    2.310861843655215     17.97104161031823     0.8064090371004078   
C    1.6982376223564957    19.888171561141597    -1.3388185482815793  
C    0.11625590577672693   -18.619381285457855   -1.3830579910849066  
C    0.49500987661200946   -14.818236943507516   1.5184808263170935   
C    0.3912944350380505    14.711321549581907    1.7844449701692933   
C    2.0518992060006176    17.528216130842722    -1.8496853914488358  
C    0.04361056848784142   18.29985109929928     0.34924110781743845  
C    -0.37254347349857886  17.77440445371736     2.109938638740844    
C    -2.1279419161778113   19.283607854343806    2.2002789094507267   
C    0.8896655017141666    -18.332451651074614   0.8958022335954496   
C    0.46041711520021406   -15.259565811351084   -0.4215123826171347  
C    -1.4763554907752476   -19.022056407982657   0.7450120138768719   
C    1.1071466760725341    -12.505424059056129   -0.8123727352896315  
C    -1.3671634364877387   -18.652146200515137   1.6862170434144517   
C    -0.7077045780990486   -17.971583373294116   -1.328559276458868   
C    -1.005823464831655    18.421313872549778    0.06391042786301587  
C    -1.954406578615872    19.636888989996642    -0.9055706874458795  
C    -1.7754717262674151   -17.29041893127895    1.0462920883801978   
C    2.0483992611545476    19.839252586955165    -0.3189275823631511  
C    1.0306241941608811    -16.26931680884907    -1.0914082680593318  
C    -2.4866736430876344   -17.85867276824429    -2.185843239853458   
C    -0.22341578400957954  -14.056216696766048   0.4761891109111067   
C    1.4572535365089216    -17.39803798645137    -1.4079154700518948  
C    0.846978448608348     18.90205857045359     -0.5639928379410566  
C    1.7666343212206994    -17.82768076068283    0.6855357337938803   
C    -0.8328154989395491   17.480683565471544    1.1782021494841286   
C    -1.202026014620091    -16.198408187595987   -0.3780096469611208  
C    0.19782851571513924   17.622964391914387    1.2325388008400275   
C    -0.8518856408869276   -16.60476013801346    0.9063427610010013   
C    2.4501413628903688    -2.775587664255234    0.3238624992694656   
C    -1.8471288143080087   -19.85140936650261    1.5500666902330624   
C    -2.0211759817997046   18.197838378356742    -0.0008723054673059061 
C    -1.3631242349869224   17.27467172369794     -0.3602253283329847  
C    -1.7071120276672713   19.779724280292143    0.29376495543715975  
C    2.2292970341749565    16.319408380726085    -0.2211471651356187  
C    -0.293155527048964    19.214205049984546    -0.11428957803463013 
C    -1.3112702845434727   -16.536864665803417   2.125468005526896    
C    0.8200401737590112    -15.18478992186564    -1.6068235326881473  
C    -2.380042447322838    19.953113222225355    -1.8542922102093715  
C    2.298173369380898     17.47525385472137     -0.5579590914608953  
C    1.447277275898287     17.86803250781956     0.030283535951141194 
C    2.416625366378783     -16.708664743296442   -1.912511207062409   
C    2.1464119178111765    18.104776546594746    2.1272141252276073   
C    -0.9787343804337599   19.11323556012842     -0.8556432185157261  
C    -1.997727551380709    -18.19253648696321    0.12137200551826166  
C    0.2509891695194168    -19.09682589634311    -0.5132988485130137  
C    -0.024375580516813405  -16.872725655246      -0.19055291426674903 
C    1.4279247625031917    -17.525203808239194   2.2565170945201216   
C    -1.0088166850447      -18.402537806395117   -0.2721599906127809  
C    -2.0276388530805165   16.77905310248552     0.4099011416610724   
C    -0.4980527496522398   -19.005360642863927   0.3404687150829835   
C    0.534181419852493     -17.073481673084498   2.1487346915905627   
C    0.9485012087549848    -17.983810425321128   -0.6961514870079211  
C    0.7674123874556994    19.334544161151914    -1.7807582248480538  
C    -1.2421493932373093   -15.568751526085325   0.726625677657875    
C    -0.9873250765564932   -14.631172481519833   -0.12208432157675717 
C    -0.4648693306800399   17.054733846189375    -0.9720755964767     
C    2.170837766599986     -18.9015202494717     0.22939465958341884  
C    -0.605115656722679    -18.920694712347213   -2.2678894663362112  
C    2.208191927374774     15.438314480631238    2.2307560579582995   
C    2.228787747266466     18.68575832429272     -1.7552813096800537  
C    -0.02916595886051007  19.474642764608834    -1.094556080999401   
C    -1.8952299974412197   -19.17592257654866    -0.33249204966048923 
C    0.04530354541379111   -19.78216020072477    0.8786932099422592   
C    0.14938141892072743   -17.47706554376344    1.1049564686713038   
C    -2.0836045697891654   -16.207314934626115   0.19192991632840242  
C    1.28138964274939      17.06610406681017     -1.2169245718040171  
C    -0.2796879367247151   18.74689934695047     1.5107246711097067   
C    -1.5824893541605682   18.129503889420644    1.0178259412462467   
C    -0.8329783927605195   19.984963918839355    -1.7313471015314255  
C    0.8178070085853543    16.06189796514573     2.0476900073421684   
C    0.6594511034619854    17.16678970470446     0.1631388050733883   
C    1.5838624612653427    18.04200325696643     -1.153373794221017   
C    1.2814437806803751    17.519652354253598    1.782249440259621    
C    0.22866796253437344   -16.204370799626247   0.6239218022244474   
C    2.401504267597        18.995155130669566    1.267702479729084    
C    -1.7147347187575266   19.01886335497513     -1.8377420553424466  
C    -1.5464128251426428   -17.391381066154253   -1.908139571231288   
C    0.7035448932144024    -19.109093169561955   1.701552070095557    
C    -0.12768897044590766  16.69431499819669     0.8603647070573662   
C    -0.45902184510601535  -16.998937836666745   -2.276332373431248   
C    0.6129326775694164    -19.71295139837454    -1.3493636781806284  
C    -1.8801225659276208   -18.005831014775243   -0.9570374228675937  
C    -0.15336336746457657  18.96297845606484     -2.220609422429774   
C    1.8523103522382534    16.97933244652218     0.48198334073035975  
C    -0.9361521991529491   -16.693267647886167   -1.261947921314915   
C    0.17768504435170995   18.026350461134683    -1.6693679956287306  
C    0.8827500758012112    16.704287347916853    1.0828990810163313   
C    -1.9463399185574382   18.073566259694537    -1.346387556670483   
C    0.9583619856953921    -16.49727424337181    -2.1163025497286903  
C    -1.4357274110565919   -19.000396572107647   -1.475192986531241   
C    0.12046630934738387   -18.24250314307316    2.1812048206069465   
C    1.610482414834462     18.76218256248001     0.4571648151148865   
C    -0.7421500894897892   16.651591321405547    2.13578836474068     
C    1.532751279248846     -18.415671121601957   -1.7491042015431881  
C    2.2153875036560815    -16.808993167297857   0.5562456939084262   
C    -0.1519478819354062   -1.699549335261101    2.486709162507331    
C    -0.992720391974825    -13.376366945641506   0.2227868773951809   
C    2.4452619329909524    -17.728914861509054   1.7731850967563325   
C    -0.6305274899677894   2.439925970250135     -0.03131461467041555 
C    -1.161423483906965    -11.345134334803115   0.47643769886709886  
C    1.9262247822475154    -15.75066194507247    -1.8787756191244265  
C    2.3023699146224565    -9.687299008013907    2.000838372003154    
